LAMMPS (19 Feb 2013)
###########################################################################
#x0
###########################################################################
units 			metal
atom_style		full
read_data		fort.26.nonbonded
  triclinic box = (0 0 0) to (14.3 14.3 14.3) with tilt (0 0 0)
  240 atoms
  0 bonds
  0 angles
  0 dihedrals
group         		C type = 1
60 atoms in group C
###########################################################################
#OLPS
###########################################################################

################################################################################
#### Pair potentials
################################################################################
pair_style hybrid/overlay tersoff lj/cut 12.0
pair_coeff * * tersoff C.4.tersoff 1 2 3 4
pair_coeff 1 2 lj/cut 0.0007000000 3.5500000000
pair_coeff 1 3 lj/cut 0.0007000000 3.5500000000
pair_coeff 1 4 lj/cut 0.0007000000 3.5500000000
pair_coeff 2 3 lj/cut 0.0007000000 3.5500000000
pair_coeff 2 4 lj/cut 0.0007000000 3.5500000000
pair_coeff 3 4 lj/cut 0.0007000000 3.5500000000
special_bonds lj 0.0 0.0 0.0 coul 0.0 0.0 0.0

#pair_style tersoff
#pair_coeff * * C.4.tersoff 1 2 3 4

#pair_style lj/cut 12.0
#pair_coeff 1 1 0.0700000000 3.5500000000
#special_bonds lj 0.0 0.0 0.0 coul 0.0 0.0 0.0
###########################################################################

###########################################################################
#run parameters
###########################################################################
variable   	dt 		equal 0.001
variable 	T_run 		equal 300
variable 	seed 		equal 11111

velocity 		all create 300 11111 rot yes dist gaussian

#--------------------------------------------------------------------------
#nvtanneal
#--------------------------------------------------------------------------
fix 		1 all nvt temp 300 300 1.0
dump		1 all xyz 10 dump.xyz
dump_modify 	1 sort id
compute 	myDis all msd
thermo_style  	custom step temp press etotal pe ke vol c_myDis[4]
thermo			10
timestep		0.0010000000000000000208
#run			500000
run			5000
Step Temp Press TotEng PotEng KinEng Volume myDis[4]
0          300    177883.56   -1574.5439   -1583.8118    9.2679524     2924.207 1.7765454e-30
Averages over the last 251 of 501 rows, steps 2500 to 5000:
Temp Press TotEng PotEng KinEng Volume myDis[4]
311.971 4901.79 -1596.78 -1606.42 9.63778 2924.21 0.165008
Loop time of 307.061 on 1 procs for 5000 steps with 240 atoms

Pair  time (%) = 304.42 (99.14)
Bond  time (%) = 0.00299358 (0.000974917)
Neigh time (%) = 0.129955 (0.0423221)
Comm  time (%) = 1.35457 (0.441142)
Outpt time (%) = 0.820584 (0.267238)
Other time (%) = 0.332526 (0.108293)

unfix 			1
uncompute 		myDis
