reset_timestep  	0
	fix 			1 all nve
	compute   		myKE all ke/atom
	compute   		myPE all pe/atom
	compute   		myStress all stress/atom virial
	compute   		flux all heat/flux myKE myPE myStress
	variable  		Jx equal c_flux[1]/vol
	variable  		Jy equal c_flux[2]/vol
	variable  		Jz equal c_flux[3]/vol
	fix       		JJ all ave/correlate 10 100000 1000000 c_flux[1] c_flux[2] c_flux[3] type auto file J0Jt_4.dat ave running
	compute 		myDis all msd
	thermo_style 		custom step temp press vol c_myDis[4] v_Jx v_Jy v_Jz
	thermo			1000
	timestep		0.0010000000000000000208
	run			1000000
Step Temp Press Volume myDis[4] Jx Jy Jz
0    303.55351    8575.8585     3048.625 3.0290145e-31  0.005130427    0.0561439 -0.0071353838
Averages over the last 501 of 1001 rows, steps 500000 to 1000000:
Temp Press Volume myDis[4] Jx Jy Jz
271.02 5470.97 3048.62 26.9148 -0.000648524 0.000365679 0.000405184
Loop time of 10936.8 on 1 procs for 1000000 steps with 240 atoms

Pair  time (%) = 10794.3 (98.6962)
Bond  time (%) = 0.268198 (0.00245225)
Neigh time (%) = 46.544 (0.425571)
Comm  time (%) = 29.9865 (0.274179)
Outpt time (%) = 0.212991 (0.00194746)
Other time (%) = 65.5824 (0.599647)

#	run			10000
	unfix			1
	uncompute		myKE
	uncompute		myPE
	uncompute		myStress
	uncompute		flux
	uncompute		myDis
	unfix			JJ

	next seed
	next iseed
jump lmp.in.gk loop_seed
variable iseed loop 10
variable seed index 11111 22222 33333 44444 55555 66666 77777 88888 99999 11110
clear
###########################################################################
#x0
###########################################################################
units 			metal
atom_style		full
read_data		fort.26.nonbonded
  triclinic box = (0 0 0) to (14.5 14.5 14.5) with tilt (0 0 0)
  240 atoms
  0 bonds
  0 angles
  0 dihedrals
group         		C type = 1
60 atoms in group C
###########################################################################
#OLPS
###########################################################################

################################################################################
#### Pair potentials
################################################################################
pair_style hybrid/overlay tersoff lj/cut 12.0
pair_coeff * * tersoff C.4.tersoff 1 2 3 4
pair_coeff 1 2 lj/cut 0.0007000000 3.5500000000
pair_coeff 1 3 lj/cut 0.0007000000 3.5500000000
pair_coeff 1 4 lj/cut 0.0007000000 3.5500000000
pair_coeff 2 3 lj/cut 0.0007000000 3.5500000000
pair_coeff 2 4 lj/cut 0.0007000000 3.5500000000
pair_coeff 3 4 lj/cut 0.0007000000 3.5500000000
special_bonds lj 0.0 0.0 0.0 coul 0.0 0.0 0.0

#pair_style tersoff
#pair_coeff * * C.4.tersoff 1 2 3 4

#pair_style lj/cut 12.0
#pair_coeff 1 1 0.0700000000 3.5500000000
#special_bonds lj 0.0 0.0 0.0 coul 0.0 0.0 0.0
###########################################################################

#--------------------------------------------------------------------------
#variables
#--------------------------------------------------------------------------
variable   	dt 		equal 0.001
#--------------------------------------------------------------------------
#kappa parameters
#--------------------------------------------------------------------------
variable    	p 		equal 100000 	# correlation length
variable    	s 		equal 10  	# sample interval
variable    	d 		equal $p*$s 	# dump interval
variable    	d 		equal 100000*$s
variable    	d 		equal 100000*10

#--------------------------------------------------------------------------
variable 	T_run 		equal 300
#--------------------------------------------------------------------------

log 	log_heat_5.lammps
