LAMMPS (22 Feb 2013)
###########################################################################
#x0
###########################################################################
units 			metal
atom_style		full
read_data		fort.26
  triclinic box = (0 0 0) to (28.4 28.4 28.4) with tilt (0 0 0)
  1920 atoms
  0 bonds
  0 angles
  0 dihedrals
group         		C type = 1
60 atoms in group C
###########################################################################
#OLPS
###########################################################################

################################################################################
#### Pair potentials
################################################################################
pair_style hybrid/overlay tersoff lj/cut 12.0
pair_coeff * * tersoff C.temp.tersoff 1 2 3 4 5 6 7 8 9 10 11 12 13 14 15 16 17 18 19 20 21 22 23 24 25 26 27 28 29 30 31 32
pair_coeff 1 2 lj/cut 0.00070000000 3.5500000000
pair_coeff 1 3 lj/cut 0.00070000000 3.5500000000
pair_coeff 1 4 lj/cut 0.00070000000 3.5500000000
pair_coeff 1 5 lj/cut 0.00070000000 3.5500000000
pair_coeff 1 6 lj/cut 0.00070000000 3.5500000000
pair_coeff 1 7 lj/cut 0.00070000000 3.5500000000
pair_coeff 1 8 lj/cut 0.00070000000 3.5500000000
pair_coeff 1 9 lj/cut 0.00070000000 3.5500000000
pair_coeff 1 10 lj/cut 0.00070000000 3.5500000000
pair_coeff 1 11 lj/cut 0.00070000000 3.5500000000
pair_coeff 1 12 lj/cut 0.00070000000 3.5500000000
pair_coeff 1 13 lj/cut 0.00070000000 3.5500000000
pair_coeff 1 14 lj/cut 0.00070000000 3.5500000000
pair_coeff 1 15 lj/cut 0.00070000000 3.5500000000
pair_coeff 1 16 lj/cut 0.00070000000 3.5500000000
pair_coeff 1 17 lj/cut 0.00070000000 3.5500000000
pair_coeff 1 18 lj/cut 0.00070000000 3.5500000000
pair_coeff 1 19 lj/cut 0.00070000000 3.5500000000
pair_coeff 1 20 lj/cut 0.00070000000 3.5500000000
pair_coeff 1 21 lj/cut 0.00070000000 3.5500000000
pair_coeff 1 22 lj/cut 0.00070000000 3.5500000000
pair_coeff 1 23 lj/cut 0.00070000000 3.5500000000
pair_coeff 1 24 lj/cut 0.00070000000 3.5500000000
pair_coeff 1 25 lj/cut 0.00070000000 3.5500000000
pair_coeff 1 26 lj/cut 0.00070000000 3.5500000000
pair_coeff 1 27 lj/cut 0.00070000000 3.5500000000
pair_coeff 1 28 lj/cut 0.00070000000 3.5500000000
pair_coeff 1 29 lj/cut 0.00070000000 3.5500000000
pair_coeff 1 30 lj/cut 0.00070000000 3.5500000000
pair_coeff 1 31 lj/cut 0.00070000000 3.5500000000
pair_coeff 1 32 lj/cut 0.00070000000 3.5500000000

pair_coeff 2 3 lj/cut 0.00070000000 3.5500000000
pair_coeff 2 4 lj/cut 0.00070000000 3.5500000000
pair_coeff 2 5 lj/cut 0.00070000000 3.5500000000
pair_coeff 2 6 lj/cut 0.00070000000 3.5500000000
pair_coeff 2 7 lj/cut 0.00070000000 3.5500000000
pair_coeff 2 8 lj/cut 0.00070000000 3.5500000000
pair_coeff 2 9 lj/cut 0.00070000000 3.5500000000
pair_coeff 2 10 lj/cut 0.00070000000 3.5500000000
pair_coeff 2 11 lj/cut 0.00070000000 3.5500000000
pair_coeff 2 12 lj/cut 0.00070000000 3.5500000000
pair_coeff 2 13 lj/cut 0.00070000000 3.5500000000
pair_coeff 2 14 lj/cut 0.00070000000 3.5500000000
pair_coeff 2 15 lj/cut 0.00070000000 3.5500000000
pair_coeff 2 16 lj/cut 0.00070000000 3.5500000000
pair_coeff 2 17 lj/cut 0.00070000000 3.5500000000
pair_coeff 2 18 lj/cut 0.00070000000 3.5500000000
pair_coeff 2 19 lj/cut 0.00070000000 3.5500000000
pair_coeff 2 20 lj/cut 0.00070000000 3.5500000000
pair_coeff 2 21 lj/cut 0.00070000000 3.5500000000
pair_coeff 2 22 lj/cut 0.00070000000 3.5500000000
pair_coeff 2 23 lj/cut 0.00070000000 3.5500000000
pair_coeff 2 24 lj/cut 0.00070000000 3.5500000000
pair_coeff 2 25 lj/cut 0.00070000000 3.5500000000
pair_coeff 2 26 lj/cut 0.00070000000 3.5500000000
pair_coeff 2 27 lj/cut 0.00070000000 3.5500000000
pair_coeff 2 28 lj/cut 0.00070000000 3.5500000000
pair_coeff 2 29 lj/cut 0.00070000000 3.5500000000
pair_coeff 2 30 lj/cut 0.00070000000 3.5500000000
pair_coeff 2 31 lj/cut 0.00070000000 3.5500000000
pair_coeff 2 32 lj/cut 0.00070000000 3.5500000000

pair_coeff 3 4 lj/cut 0.00070000000 3.5500000000
pair_coeff 3 5 lj/cut 0.00070000000 3.5500000000
pair_coeff 3 6 lj/cut 0.00070000000 3.5500000000
pair_coeff 3 7 lj/cut 0.00070000000 3.5500000000
pair_coeff 3 8 lj/cut 0.00070000000 3.5500000000
pair_coeff 3 9 lj/cut 0.00070000000 3.5500000000
pair_coeff 3 10 lj/cut 0.00070000000 3.5500000000
pair_coeff 3 11 lj/cut 0.00070000000 3.5500000000
pair_coeff 3 12 lj/cut 0.00070000000 3.5500000000
pair_coeff 3 13 lj/cut 0.00070000000 3.5500000000
pair_coeff 3 14 lj/cut 0.00070000000 3.5500000000
pair_coeff 3 15 lj/cut 0.00070000000 3.5500000000
pair_coeff 3 16 lj/cut 0.00070000000 3.5500000000
pair_coeff 3 17 lj/cut 0.00070000000 3.5500000000
pair_coeff 3 18 lj/cut 0.00070000000 3.5500000000
pair_coeff 3 19 lj/cut 0.00070000000 3.5500000000
pair_coeff 3 20 lj/cut 0.00070000000 3.5500000000
pair_coeff 3 21 lj/cut 0.00070000000 3.5500000000
pair_coeff 3 22 lj/cut 0.00070000000 3.5500000000
pair_coeff 3 23 lj/cut 0.00070000000 3.5500000000
pair_coeff 3 24 lj/cut 0.00070000000 3.5500000000
pair_coeff 3 25 lj/cut 0.00070000000 3.5500000000
pair_coeff 3 26 lj/cut 0.00070000000 3.5500000000
pair_coeff 3 27 lj/cut 0.00070000000 3.5500000000
pair_coeff 3 28 lj/cut 0.00070000000 3.5500000000
pair_coeff 3 29 lj/cut 0.00070000000 3.5500000000
pair_coeff 3 30 lj/cut 0.00070000000 3.5500000000
pair_coeff 3 31 lj/cut 0.00070000000 3.5500000000
pair_coeff 3 32 lj/cut 0.00070000000 3.5500000000

pair_coeff 4 5 lj/cut 0.00070000000 3.5500000000
pair_coeff 4 6 lj/cut 0.00070000000 3.5500000000
pair_coeff 4 7 lj/cut 0.00070000000 3.5500000000
pair_coeff 4 8 lj/cut 0.00070000000 3.5500000000
pair_coeff 4 9 lj/cut 0.00070000000 3.5500000000
pair_coeff 4 10 lj/cut 0.00070000000 3.5500000000
pair_coeff 4 11 lj/cut 0.00070000000 3.5500000000
pair_coeff 4 12 lj/cut 0.00070000000 3.5500000000
pair_coeff 4 13 lj/cut 0.00070000000 3.5500000000
pair_coeff 4 14 lj/cut 0.00070000000 3.5500000000
pair_coeff 4 15 lj/cut 0.00070000000 3.5500000000
pair_coeff 4 16 lj/cut 0.00070000000 3.5500000000
pair_coeff 4 17 lj/cut 0.00070000000 3.5500000000
pair_coeff 4 18 lj/cut 0.00070000000 3.5500000000
pair_coeff 4 19 lj/cut 0.00070000000 3.5500000000
pair_coeff 4 20 lj/cut 0.00070000000 3.5500000000
pair_coeff 4 21 lj/cut 0.00070000000 3.5500000000
pair_coeff 4 22 lj/cut 0.00070000000 3.5500000000
pair_coeff 4 23 lj/cut 0.00070000000 3.5500000000
pair_coeff 4 24 lj/cut 0.00070000000 3.5500000000
pair_coeff 4 25 lj/cut 0.00070000000 3.5500000000
pair_coeff 4 26 lj/cut 0.00070000000 3.5500000000
pair_coeff 4 27 lj/cut 0.00070000000 3.5500000000
pair_coeff 4 28 lj/cut 0.00070000000 3.5500000000
pair_coeff 4 29 lj/cut 0.00070000000 3.5500000000
pair_coeff 4 30 lj/cut 0.00070000000 3.5500000000
pair_coeff 4 31 lj/cut 0.00070000000 3.5500000000
pair_coeff 4 32 lj/cut 0.00070000000 3.5500000000

pair_coeff 5 6 lj/cut 0.00070000000 3.5500000000
pair_coeff 5 7 lj/cut 0.00070000000 3.5500000000
pair_coeff 5 8 lj/cut 0.00070000000 3.5500000000
pair_coeff 5 9 lj/cut 0.00070000000 3.5500000000
pair_coeff 5 10 lj/cut 0.00070000000 3.5500000000
pair_coeff 5 11 lj/cut 0.00070000000 3.5500000000
pair_coeff 5 12 lj/cut 0.00070000000 3.5500000000
pair_coeff 5 13 lj/cut 0.00070000000 3.5500000000
pair_coeff 5 14 lj/cut 0.00070000000 3.5500000000
pair_coeff 5 15 lj/cut 0.00070000000 3.5500000000
pair_coeff 5 16 lj/cut 0.00070000000 3.5500000000
pair_coeff 5 17 lj/cut 0.00070000000 3.5500000000
pair_coeff 5 18 lj/cut 0.00070000000 3.5500000000
pair_coeff 5 19 lj/cut 0.00070000000 3.5500000000
pair_coeff 5 20 lj/cut 0.00070000000 3.5500000000
pair_coeff 5 21 lj/cut 0.00070000000 3.5500000000
pair_coeff 5 22 lj/cut 0.00070000000 3.5500000000
pair_coeff 5 23 lj/cut 0.00070000000 3.5500000000
pair_coeff 5 24 lj/cut 0.00070000000 3.5500000000
pair_coeff 5 25 lj/cut 0.00070000000 3.5500000000
pair_coeff 5 26 lj/cut 0.00070000000 3.5500000000
pair_coeff 5 27 lj/cut 0.00070000000 3.5500000000
pair_coeff 5 28 lj/cut 0.00070000000 3.5500000000
pair_coeff 5 29 lj/cut 0.00070000000 3.5500000000
pair_coeff 5 30 lj/cut 0.00070000000 3.5500000000
pair_coeff 5 31 lj/cut 0.00070000000 3.5500000000
pair_coeff 5 32 lj/cut 0.00070000000 3.5500000000

pair_coeff 6 7 lj/cut 0.00070000000 3.5500000000
pair_coeff 6 8 lj/cut 0.00070000000 3.5500000000
pair_coeff 6 9 lj/cut 0.00070000000 3.5500000000
pair_coeff 6 10 lj/cut 0.00070000000 3.5500000000
pair_coeff 6 11 lj/cut 0.00070000000 3.5500000000
pair_coeff 6 12 lj/cut 0.00070000000 3.5500000000
pair_coeff 6 13 lj/cut 0.00070000000 3.5500000000
pair_coeff 6 14 lj/cut 0.00070000000 3.5500000000
pair_coeff 6 15 lj/cut 0.00070000000 3.5500000000
pair_coeff 6 16 lj/cut 0.00070000000 3.5500000000
pair_coeff 6 17 lj/cut 0.00070000000 3.5500000000
pair_coeff 6 18 lj/cut 0.00070000000 3.5500000000
pair_coeff 6 19 lj/cut 0.00070000000 3.5500000000
pair_coeff 6 20 lj/cut 0.00070000000 3.5500000000
pair_coeff 6 21 lj/cut 0.00070000000 3.5500000000
pair_coeff 6 22 lj/cut 0.00070000000 3.5500000000
pair_coeff 6 23 lj/cut 0.00070000000 3.5500000000
pair_coeff 6 24 lj/cut 0.00070000000 3.5500000000
pair_coeff 6 25 lj/cut 0.00070000000 3.5500000000
pair_coeff 6 26 lj/cut 0.00070000000 3.5500000000
pair_coeff 6 27 lj/cut 0.00070000000 3.5500000000
pair_coeff 6 28 lj/cut 0.00070000000 3.5500000000
pair_coeff 6 29 lj/cut 0.00070000000 3.5500000000
pair_coeff 6 30 lj/cut 0.00070000000 3.5500000000
pair_coeff 6 31 lj/cut 0.00070000000 3.5500000000
pair_coeff 6 32 lj/cut 0.00070000000 3.5500000000

pair_coeff 7 8 lj/cut 0.00070000000 3.5500000000
pair_coeff 7 9 lj/cut 0.00070000000 3.5500000000
pair_coeff 7 10 lj/cut 0.00070000000 3.5500000000
pair_coeff 7 11 lj/cut 0.00070000000 3.5500000000
pair_coeff 7 12 lj/cut 0.00070000000 3.5500000000
pair_coeff 7 13 lj/cut 0.00070000000 3.5500000000
pair_coeff 7 14 lj/cut 0.00070000000 3.5500000000
pair_coeff 7 15 lj/cut 0.00070000000 3.5500000000
pair_coeff 7 16 lj/cut 0.00070000000 3.5500000000
pair_coeff 7 17 lj/cut 0.00070000000 3.5500000000
pair_coeff 7 18 lj/cut 0.00070000000 3.5500000000
pair_coeff 7 19 lj/cut 0.00070000000 3.5500000000
pair_coeff 7 20 lj/cut 0.00070000000 3.5500000000
pair_coeff 7 21 lj/cut 0.00070000000 3.5500000000
pair_coeff 7 22 lj/cut 0.00070000000 3.5500000000
pair_coeff 7 23 lj/cut 0.00070000000 3.5500000000
pair_coeff 7 24 lj/cut 0.00070000000 3.5500000000
pair_coeff 7 25 lj/cut 0.00070000000 3.5500000000
pair_coeff 7 26 lj/cut 0.00070000000 3.5500000000
pair_coeff 7 27 lj/cut 0.00070000000 3.5500000000
pair_coeff 7 28 lj/cut 0.00070000000 3.5500000000
pair_coeff 7 29 lj/cut 0.00070000000 3.5500000000
pair_coeff 7 30 lj/cut 0.00070000000 3.5500000000
pair_coeff 7 31 lj/cut 0.00070000000 3.5500000000
pair_coeff 7 32 lj/cut 0.00070000000 3.5500000000

pair_coeff 8 9 lj/cut 0.00070000000 3.5500000000
pair_coeff 8 10 lj/cut 0.00070000000 3.5500000000
pair_coeff 8 11 lj/cut 0.00070000000 3.5500000000
pair_coeff 8 12 lj/cut 0.00070000000 3.5500000000
pair_coeff 8 13 lj/cut 0.00070000000 3.5500000000
pair_coeff 8 14 lj/cut 0.00070000000 3.5500000000
pair_coeff 8 15 lj/cut 0.00070000000 3.5500000000
pair_coeff 8 16 lj/cut 0.00070000000 3.5500000000
pair_coeff 8 17 lj/cut 0.00070000000 3.5500000000
pair_coeff 8 18 lj/cut 0.00070000000 3.5500000000
pair_coeff 8 19 lj/cut 0.00070000000 3.5500000000
pair_coeff 8 20 lj/cut 0.00070000000 3.5500000000
pair_coeff 8 21 lj/cut 0.00070000000 3.5500000000
pair_coeff 8 22 lj/cut 0.00070000000 3.5500000000
pair_coeff 8 23 lj/cut 0.00070000000 3.5500000000
pair_coeff 8 24 lj/cut 0.00070000000 3.5500000000
pair_coeff 8 25 lj/cut 0.00070000000 3.5500000000
pair_coeff 8 26 lj/cut 0.00070000000 3.5500000000
pair_coeff 8 27 lj/cut 0.00070000000 3.5500000000
pair_coeff 8 28 lj/cut 0.00070000000 3.5500000000
pair_coeff 8 29 lj/cut 0.00070000000 3.5500000000
pair_coeff 8 30 lj/cut 0.00070000000 3.5500000000
pair_coeff 8 31 lj/cut 0.00070000000 3.5500000000
pair_coeff 8 32 lj/cut 0.00070000000 3.5500000000

pair_coeff 9 10 lj/cut 0.00070000000 3.5500000000
pair_coeff 9 11 lj/cut 0.00070000000 3.5500000000
pair_coeff 9 12 lj/cut 0.00070000000 3.5500000000
pair_coeff 9 13 lj/cut 0.00070000000 3.5500000000
pair_coeff 9 14 lj/cut 0.00070000000 3.5500000000
pair_coeff 9 15 lj/cut 0.00070000000 3.5500000000
pair_coeff 9 16 lj/cut 0.00070000000 3.5500000000
pair_coeff 9 17 lj/cut 0.00070000000 3.5500000000
pair_coeff 9 18 lj/cut 0.00070000000 3.5500000000
pair_coeff 9 19 lj/cut 0.00070000000 3.5500000000
pair_coeff 9 20 lj/cut 0.00070000000 3.5500000000
pair_coeff 9 21 lj/cut 0.00070000000 3.5500000000
pair_coeff 9 22 lj/cut 0.00070000000 3.5500000000
pair_coeff 9 23 lj/cut 0.00070000000 3.5500000000
pair_coeff 9 24 lj/cut 0.00070000000 3.5500000000
pair_coeff 9 25 lj/cut 0.00070000000 3.5500000000
pair_coeff 9 26 lj/cut 0.00070000000 3.5500000000
pair_coeff 9 27 lj/cut 0.00070000000 3.5500000000
pair_coeff 9 28 lj/cut 0.00070000000 3.5500000000
pair_coeff 9 29 lj/cut 0.00070000000 3.5500000000
pair_coeff 9 30 lj/cut 0.00070000000 3.5500000000
pair_coeff 9 31 lj/cut 0.00070000000 3.5500000000
pair_coeff 9 32 lj/cut 0.00070000000 3.5500000000

pair_coeff 10 11 lj/cut 0.00070000000 3.5500000000
pair_coeff 10 12 lj/cut 0.00070000000 3.5500000000
pair_coeff 10 13 lj/cut 0.00070000000 3.5500000000
pair_coeff 10 14 lj/cut 0.00070000000 3.5500000000
pair_coeff 10 15 lj/cut 0.00070000000 3.5500000000
pair_coeff 10 16 lj/cut 0.00070000000 3.5500000000
pair_coeff 10 17 lj/cut 0.00070000000 3.5500000000
pair_coeff 10 18 lj/cut 0.00070000000 3.5500000000
pair_coeff 10 19 lj/cut 0.00070000000 3.5500000000
pair_coeff 10 20 lj/cut 0.00070000000 3.5500000000
pair_coeff 10 21 lj/cut 0.00070000000 3.5500000000
pair_coeff 10 22 lj/cut 0.00070000000 3.5500000000
pair_coeff 10 23 lj/cut 0.00070000000 3.5500000000
pair_coeff 10 24 lj/cut 0.00070000000 3.5500000000
pair_coeff 10 25 lj/cut 0.00070000000 3.5500000000
pair_coeff 10 26 lj/cut 0.00070000000 3.5500000000
pair_coeff 10 27 lj/cut 0.00070000000 3.5500000000
pair_coeff 10 28 lj/cut 0.00070000000 3.5500000000
pair_coeff 10 29 lj/cut 0.00070000000 3.5500000000
pair_coeff 10 30 lj/cut 0.00070000000 3.5500000000
pair_coeff 10 31 lj/cut 0.00070000000 3.5500000000
pair_coeff 10 32 lj/cut 0.00070000000 3.5500000000

pair_coeff 11 12 lj/cut 0.00070000000 3.5500000000
pair_coeff 11 13 lj/cut 0.00070000000 3.5500000000
pair_coeff 11 14 lj/cut 0.00070000000 3.5500000000
pair_coeff 11 15 lj/cut 0.00070000000 3.5500000000
pair_coeff 11 16 lj/cut 0.00070000000 3.5500000000
pair_coeff 11 17 lj/cut 0.00070000000 3.5500000000
pair_coeff 11 18 lj/cut 0.00070000000 3.5500000000
pair_coeff 11 19 lj/cut 0.00070000000 3.5500000000
pair_coeff 11 20 lj/cut 0.00070000000 3.5500000000
pair_coeff 11 21 lj/cut 0.00070000000 3.5500000000
pair_coeff 11 22 lj/cut 0.00070000000 3.5500000000
pair_coeff 11 23 lj/cut 0.00070000000 3.5500000000
pair_coeff 11 24 lj/cut 0.00070000000 3.5500000000
pair_coeff 11 25 lj/cut 0.00070000000 3.5500000000
pair_coeff 11 26 lj/cut 0.00070000000 3.5500000000
pair_coeff 11 27 lj/cut 0.00070000000 3.5500000000
pair_coeff 11 28 lj/cut 0.00070000000 3.5500000000
pair_coeff 11 29 lj/cut 0.00070000000 3.5500000000
pair_coeff 11 30 lj/cut 0.00070000000 3.5500000000
pair_coeff 11 31 lj/cut 0.00070000000 3.5500000000
pair_coeff 11 32 lj/cut 0.00070000000 3.5500000000

pair_coeff 12 13 lj/cut 0.00070000000 3.5500000000
pair_coeff 12 14 lj/cut 0.00070000000 3.5500000000
pair_coeff 12 15 lj/cut 0.00070000000 3.5500000000
pair_coeff 12 16 lj/cut 0.00070000000 3.5500000000
pair_coeff 12 17 lj/cut 0.00070000000 3.5500000000
pair_coeff 12 18 lj/cut 0.00070000000 3.5500000000
pair_coeff 12 19 lj/cut 0.00070000000 3.5500000000
pair_coeff 12 20 lj/cut 0.00070000000 3.5500000000
pair_coeff 12 21 lj/cut 0.00070000000 3.5500000000
pair_coeff 12 22 lj/cut 0.00070000000 3.5500000000
pair_coeff 12 23 lj/cut 0.00070000000 3.5500000000
pair_coeff 12 24 lj/cut 0.00070000000 3.5500000000
pair_coeff 12 25 lj/cut 0.00070000000 3.5500000000
pair_coeff 12 26 lj/cut 0.00070000000 3.5500000000
pair_coeff 12 27 lj/cut 0.00070000000 3.5500000000
pair_coeff 12 28 lj/cut 0.00070000000 3.5500000000
pair_coeff 12 29 lj/cut 0.00070000000 3.5500000000
pair_coeff 12 30 lj/cut 0.00070000000 3.5500000000
pair_coeff 12 31 lj/cut 0.00070000000 3.5500000000
pair_coeff 12 32 lj/cut 0.00070000000 3.5500000000

pair_coeff 13 14 lj/cut 0.00070000000 3.5500000000
pair_coeff 13 15 lj/cut 0.00070000000 3.5500000000
pair_coeff 13 16 lj/cut 0.00070000000 3.5500000000
pair_coeff 13 17 lj/cut 0.00070000000 3.5500000000
pair_coeff 13 18 lj/cut 0.00070000000 3.5500000000
pair_coeff 13 19 lj/cut 0.00070000000 3.5500000000
pair_coeff 13 20 lj/cut 0.00070000000 3.5500000000
pair_coeff 13 21 lj/cut 0.00070000000 3.5500000000
pair_coeff 13 22 lj/cut 0.00070000000 3.5500000000
pair_coeff 13 23 lj/cut 0.00070000000 3.5500000000
pair_coeff 13 24 lj/cut 0.00070000000 3.5500000000
pair_coeff 13 25 lj/cut 0.00070000000 3.5500000000
pair_coeff 13 26 lj/cut 0.00070000000 3.5500000000
pair_coeff 13 27 lj/cut 0.00070000000 3.5500000000
pair_coeff 13 28 lj/cut 0.00070000000 3.5500000000
pair_coeff 13 29 lj/cut 0.00070000000 3.5500000000
pair_coeff 13 30 lj/cut 0.00070000000 3.5500000000
pair_coeff 13 31 lj/cut 0.00070000000 3.5500000000
pair_coeff 13 32 lj/cut 0.00070000000 3.5500000000

pair_coeff 14 15 lj/cut 0.00070000000 3.5500000000
pair_coeff 14 16 lj/cut 0.00070000000 3.5500000000
pair_coeff 14 17 lj/cut 0.00070000000 3.5500000000
pair_coeff 14 18 lj/cut 0.00070000000 3.5500000000
pair_coeff 14 19 lj/cut 0.00070000000 3.5500000000
pair_coeff 14 20 lj/cut 0.00070000000 3.5500000000
pair_coeff 14 21 lj/cut 0.00070000000 3.5500000000
pair_coeff 14 22 lj/cut 0.00070000000 3.5500000000
pair_coeff 14 23 lj/cut 0.00070000000 3.5500000000
pair_coeff 14 24 lj/cut 0.00070000000 3.5500000000
pair_coeff 14 25 lj/cut 0.00070000000 3.5500000000
pair_coeff 14 26 lj/cut 0.00070000000 3.5500000000
pair_coeff 14 27 lj/cut 0.00070000000 3.5500000000
pair_coeff 14 28 lj/cut 0.00070000000 3.5500000000
pair_coeff 14 29 lj/cut 0.00070000000 3.5500000000
pair_coeff 14 30 lj/cut 0.00070000000 3.5500000000
pair_coeff 14 31 lj/cut 0.00070000000 3.5500000000
pair_coeff 14 32 lj/cut 0.00070000000 3.5500000000

pair_coeff 15 16 lj/cut 0.00070000000 3.5500000000
pair_coeff 15 17 lj/cut 0.00070000000 3.5500000000
pair_coeff 15 18 lj/cut 0.00070000000 3.5500000000
pair_coeff 15 19 lj/cut 0.00070000000 3.5500000000
pair_coeff 15 20 lj/cut 0.00070000000 3.5500000000
pair_coeff 15 21 lj/cut 0.00070000000 3.5500000000
pair_coeff 15 22 lj/cut 0.00070000000 3.5500000000
pair_coeff 15 23 lj/cut 0.00070000000 3.5500000000
pair_coeff 15 24 lj/cut 0.00070000000 3.5500000000
pair_coeff 15 25 lj/cut 0.00070000000 3.5500000000
pair_coeff 15 26 lj/cut 0.00070000000 3.5500000000
pair_coeff 15 27 lj/cut 0.00070000000 3.5500000000
pair_coeff 15 28 lj/cut 0.00070000000 3.5500000000
pair_coeff 15 29 lj/cut 0.00070000000 3.5500000000
pair_coeff 15 30 lj/cut 0.00070000000 3.5500000000
pair_coeff 15 31 lj/cut 0.00070000000 3.5500000000
pair_coeff 15 32 lj/cut 0.00070000000 3.5500000000

pair_coeff 16 17 lj/cut 0.00070000000 3.5500000000
pair_coeff 16 18 lj/cut 0.00070000000 3.5500000000
pair_coeff 16 19 lj/cut 0.00070000000 3.5500000000
pair_coeff 16 20 lj/cut 0.00070000000 3.5500000000
pair_coeff 16 21 lj/cut 0.00070000000 3.5500000000
pair_coeff 16 22 lj/cut 0.00070000000 3.5500000000
pair_coeff 16 23 lj/cut 0.00070000000 3.5500000000
pair_coeff 16 24 lj/cut 0.00070000000 3.5500000000
pair_coeff 16 25 lj/cut 0.00070000000 3.5500000000
pair_coeff 16 26 lj/cut 0.00070000000 3.5500000000
pair_coeff 16 27 lj/cut 0.00070000000 3.5500000000
pair_coeff 16 28 lj/cut 0.00070000000 3.5500000000
pair_coeff 16 29 lj/cut 0.00070000000 3.5500000000
pair_coeff 16 30 lj/cut 0.00070000000 3.5500000000
pair_coeff 16 31 lj/cut 0.00070000000 3.5500000000
pair_coeff 16 32 lj/cut 0.00070000000 3.5500000000

pair_coeff 17 18 lj/cut 0.00070000000 3.5500000000
pair_coeff 17 19 lj/cut 0.00070000000 3.5500000000
pair_coeff 17 20 lj/cut 0.00070000000 3.5500000000
pair_coeff 17 21 lj/cut 0.00070000000 3.5500000000
pair_coeff 17 22 lj/cut 0.00070000000 3.5500000000
pair_coeff 17 23 lj/cut 0.00070000000 3.5500000000
pair_coeff 17 24 lj/cut 0.00070000000 3.5500000000
pair_coeff 17 25 lj/cut 0.00070000000 3.5500000000
pair_coeff 17 26 lj/cut 0.00070000000 3.5500000000
pair_coeff 17 27 lj/cut 0.00070000000 3.5500000000
pair_coeff 17 28 lj/cut 0.00070000000 3.5500000000
pair_coeff 17 29 lj/cut 0.00070000000 3.5500000000
pair_coeff 17 30 lj/cut 0.00070000000 3.5500000000
pair_coeff 17 31 lj/cut 0.00070000000 3.5500000000
pair_coeff 17 32 lj/cut 0.00070000000 3.5500000000

pair_coeff 18 19 lj/cut 0.00070000000 3.5500000000
pair_coeff 18 20 lj/cut 0.00070000000 3.5500000000
pair_coeff 18 21 lj/cut 0.00070000000 3.5500000000
pair_coeff 18 22 lj/cut 0.00070000000 3.5500000000
pair_coeff 18 23 lj/cut 0.00070000000 3.5500000000
pair_coeff 18 24 lj/cut 0.00070000000 3.5500000000
pair_coeff 18 25 lj/cut 0.00070000000 3.5500000000
pair_coeff 18 26 lj/cut 0.00070000000 3.5500000000
pair_coeff 18 27 lj/cut 0.00070000000 3.5500000000
pair_coeff 18 28 lj/cut 0.00070000000 3.5500000000
pair_coeff 18 29 lj/cut 0.00070000000 3.5500000000
pair_coeff 18 30 lj/cut 0.00070000000 3.5500000000
pair_coeff 18 31 lj/cut 0.00070000000 3.5500000000
pair_coeff 18 32 lj/cut 0.00070000000 3.5500000000

pair_coeff 19 20 lj/cut 0.00070000000 3.5500000000
pair_coeff 19 21 lj/cut 0.00070000000 3.5500000000
pair_coeff 19 22 lj/cut 0.00070000000 3.5500000000
pair_coeff 19 23 lj/cut 0.00070000000 3.5500000000
pair_coeff 19 24 lj/cut 0.00070000000 3.5500000000
pair_coeff 19 25 lj/cut 0.00070000000 3.5500000000
pair_coeff 19 26 lj/cut 0.00070000000 3.5500000000
pair_coeff 19 27 lj/cut 0.00070000000 3.5500000000
pair_coeff 19 28 lj/cut 0.00070000000 3.5500000000
pair_coeff 19 29 lj/cut 0.00070000000 3.5500000000
pair_coeff 19 30 lj/cut 0.00070000000 3.5500000000
pair_coeff 19 31 lj/cut 0.00070000000 3.5500000000
pair_coeff 19 32 lj/cut 0.00070000000 3.5500000000

pair_coeff 20 21 lj/cut 0.00070000000 3.5500000000
pair_coeff 20 22 lj/cut 0.00070000000 3.5500000000
pair_coeff 20 23 lj/cut 0.00070000000 3.5500000000
pair_coeff 20 24 lj/cut 0.00070000000 3.5500000000
pair_coeff 20 25 lj/cut 0.00070000000 3.5500000000
pair_coeff 20 26 lj/cut 0.00070000000 3.5500000000
pair_coeff 20 27 lj/cut 0.00070000000 3.5500000000
pair_coeff 20 28 lj/cut 0.00070000000 3.5500000000
pair_coeff 20 29 lj/cut 0.00070000000 3.5500000000
pair_coeff 20 30 lj/cut 0.00070000000 3.5500000000
pair_coeff 20 31 lj/cut 0.00070000000 3.5500000000
pair_coeff 20 32 lj/cut 0.00070000000 3.5500000000

pair_coeff 21 22 lj/cut 0.00070000000 3.5500000000
pair_coeff 21 23 lj/cut 0.00070000000 3.5500000000
pair_coeff 21 24 lj/cut 0.00070000000 3.5500000000
pair_coeff 21 25 lj/cut 0.00070000000 3.5500000000
pair_coeff 21 26 lj/cut 0.00070000000 3.5500000000
pair_coeff 21 27 lj/cut 0.00070000000 3.5500000000
pair_coeff 21 28 lj/cut 0.00070000000 3.5500000000
pair_coeff 21 29 lj/cut 0.00070000000 3.5500000000
pair_coeff 21 30 lj/cut 0.00070000000 3.5500000000
pair_coeff 21 31 lj/cut 0.00070000000 3.5500000000
pair_coeff 21 32 lj/cut 0.00070000000 3.5500000000

pair_coeff 22 23 lj/cut 0.00070000000 3.5500000000
pair_coeff 22 24 lj/cut 0.00070000000 3.5500000000
pair_coeff 22 25 lj/cut 0.00070000000 3.5500000000
pair_coeff 22 26 lj/cut 0.00070000000 3.5500000000
pair_coeff 22 27 lj/cut 0.00070000000 3.5500000000
pair_coeff 22 28 lj/cut 0.00070000000 3.5500000000
pair_coeff 22 29 lj/cut 0.00070000000 3.5500000000
pair_coeff 22 30 lj/cut 0.00070000000 3.5500000000
pair_coeff 22 31 lj/cut 0.00070000000 3.5500000000
pair_coeff 22 32 lj/cut 0.00070000000 3.5500000000

pair_coeff 23 24 lj/cut 0.00070000000 3.5500000000
pair_coeff 23 25 lj/cut 0.00070000000 3.5500000000
pair_coeff 23 26 lj/cut 0.00070000000 3.5500000000
pair_coeff 23 27 lj/cut 0.00070000000 3.5500000000
pair_coeff 23 28 lj/cut 0.00070000000 3.5500000000
pair_coeff 23 29 lj/cut 0.00070000000 3.5500000000
pair_coeff 23 30 lj/cut 0.00070000000 3.5500000000
pair_coeff 23 31 lj/cut 0.00070000000 3.5500000000
pair_coeff 23 32 lj/cut 0.00070000000 3.5500000000

pair_coeff 24 25 lj/cut 0.00070000000 3.5500000000
pair_coeff 24 26 lj/cut 0.00070000000 3.5500000000
pair_coeff 24 27 lj/cut 0.00070000000 3.5500000000
pair_coeff 24 28 lj/cut 0.00070000000 3.5500000000
pair_coeff 24 29 lj/cut 0.00070000000 3.5500000000
pair_coeff 24 30 lj/cut 0.00070000000 3.5500000000
pair_coeff 24 31 lj/cut 0.00070000000 3.5500000000
pair_coeff 24 32 lj/cut 0.00070000000 3.5500000000

pair_coeff 25 26 lj/cut 0.00070000000 3.5500000000
pair_coeff 25 27 lj/cut 0.00070000000 3.5500000000
pair_coeff 25 28 lj/cut 0.00070000000 3.5500000000
pair_coeff 25 29 lj/cut 0.00070000000 3.5500000000
pair_coeff 25 30 lj/cut 0.00070000000 3.5500000000
pair_coeff 25 31 lj/cut 0.00070000000 3.5500000000
pair_coeff 25 32 lj/cut 0.00070000000 3.5500000000

pair_coeff 26 27 lj/cut 0.00070000000 3.5500000000
pair_coeff 26 28 lj/cut 0.00070000000 3.5500000000
pair_coeff 26 29 lj/cut 0.00070000000 3.5500000000
pair_coeff 26 30 lj/cut 0.00070000000 3.5500000000
pair_coeff 26 31 lj/cut 0.00070000000 3.5500000000
pair_coeff 26 32 lj/cut 0.00070000000 3.5500000000

pair_coeff 27 28 lj/cut 0.00070000000 3.5500000000
pair_coeff 27 29 lj/cut 0.00070000000 3.5500000000
pair_coeff 27 30 lj/cut 0.00070000000 3.5500000000
pair_coeff 27 31 lj/cut 0.00070000000 3.5500000000
pair_coeff 27 32 lj/cut 0.00070000000 3.5500000000

pair_coeff 28 29 lj/cut 0.00070000000 3.5500000000
pair_coeff 28 30 lj/cut 0.00070000000 3.5500000000
pair_coeff 28 31 lj/cut 0.00070000000 3.5500000000
pair_coeff 28 32 lj/cut 0.00070000000 3.5500000000

pair_coeff 29 30 lj/cut 0.00070000000 3.5500000000
pair_coeff 29 31 lj/cut 0.00070000000 3.5500000000
pair_coeff 29 32 lj/cut 0.00070000000 3.5500000000

pair_coeff 30 31 lj/cut 0.00070000000 3.5500000000
pair_coeff 30 32 lj/cut 0.00070000000 3.5500000000

pair_coeff 31 32 lj/cut 0.00070000000 3.5500000000

special_bonds lj 0.0 0.0 0.0 coul 0.0 0.0 0.0

#pair_style tersoff
#pair_coeff * * C.4.tersoff 1 2 3 4

#pair_style lj/cut 12.0
#pair_coeff 1 1 0.00070000000 3.5500000000
#special_bonds lj 0.0 0.0 0.0 coul 0.0 0.0 0.0
###########################################################################

###########################################################################
#run parameters
###########################################################################
variable   	dt 		equal 0.001
variable 	T_run 		equal 300
variable 	seed 		equal 11111

velocity 		all create 300 11111 rot yes dist gaussian

#--------------------------------------------------------------------------
#nvtanneal
#--------------------------------------------------------------------------
fix 		1 all nvt temp 300 300 1.0
dump		1 all xyz 10 dump.xyz
dump_modify 	1 sort id
compute 	myDis all msd
thermo_style  	custom step temp press etotal pe ke vol c_myDis[4]
thermo			10
timestep		0.0010000000000000000208
#run			500000
run			5000
Step Temp Press TotEng PotEng KinEng Volume myDis[4]
0          300    186363.81   -12582.676   -12657.091    74.415065    22906.304            0
Averages over the last 251 of 501 rows, steps 2500 to 5000:
Temp Press TotEng PotEng KinEng Volume myDis[4]
369.648 8755.51 -12743.2 -12834.9 91.6912 22906.3 4.64876
Loop time of 453.124 on 4 procs for 5000 steps with 1920 atoms

Pair  time (%) = 293.589 (64.7922)
Bond  time (%) = 0.00390303 (0.000861361)
Neigh time (%) = 0.490847 (0.108325)
Comm  time (%) = 119.747 (26.4271)
Outpt time (%) = 15.014 (3.31344)
Other time (%) = 24.2787 (5.35807)

unfix 			1
uncompute 		myDis
