reset_timestep  	0
	fix 			1 all nve
	compute   		myKE all ke/atom
	compute   		myPE all pe/atom
	compute   		myStress all stress/atom virial
	compute   		flux all heat/flux myKE myPE myStress
	variable  		Jx equal c_flux[1]/vol
	variable  		Jy equal c_flux[2]/vol
	variable  		Jz equal c_flux[3]/vol
	fix       		JJ all ave/correlate 10 100000 1000000 c_flux[1] c_flux[2] c_flux[3] type auto file J0Jt_2.dat ave running
	compute 		myDis all msd
	thermo_style 		custom step temp press vol c_myDis[4] v_Jx v_Jy v_Jz
	thermo			1000
	timestep		0.0010000000000000000208
	run			1000000
Step Temp Press Volume myDis[4] Jx Jy Jz
0    283.59863     15049.34     2924.207 2.1066712e-30 -0.0084433726  0.010123246  0.018024717
Averages over the last 501 of 1001 rows, steps 500000 to 1000000:
Temp Press Volume myDis[4] Jx Jy Jz
253.694 8844.81 2924.21 26.7996 -0.00119755 -0.000357021 -0.00039564
Loop time of 6805.55 on 2 procs for 1000000 steps with 240 atoms

Pair  time (%) = 6434.77 (94.5519)
Bond  time (%) = 0.280043 (0.00411492)
Neigh time (%) = 24.8458 (0.365081)
Comm  time (%) = 246.879 (3.62762)
Outpt time (%) = 0.449392 (0.00660333)
Other time (%) = 98.3202 (1.44471)

#	run			10000
	unfix			1
	uncompute		myKE
	uncompute		myPE
	uncompute		myStress
	uncompute		flux
	uncompute		myDis
	unfix			JJ

	next seed
	next iseed
jump lmp.in.gk loop_seed
variable iseed loop 10
variable seed index 11111 22222 33333 44444 55555 66666 77777 88888 99999 11110
clear
###########################################################################
#x0
###########################################################################
units 			metal
atom_style		full
read_data		fort.26.nonbonded
  triclinic box = (0 0 0) to (14.3 14.3 14.3) with tilt (0 0 0)
  240 atoms
  0 bonds
  0 angles
  0 dihedrals
group         		C type = 1
60 atoms in group C
###########################################################################
#OLPS
###########################################################################

################################################################################
#### Pair potentials
################################################################################
pair_style hybrid/overlay tersoff lj/cut 12.0
pair_coeff * * tersoff C.4.tersoff 1 2 3 4
pair_coeff 1 2 lj/cut 0.0007000000 3.5500000000
pair_coeff 1 3 lj/cut 0.0007000000 3.5500000000
pair_coeff 1 4 lj/cut 0.0007000000 3.5500000000
pair_coeff 2 3 lj/cut 0.0007000000 3.5500000000
pair_coeff 2 4 lj/cut 0.0007000000 3.5500000000
pair_coeff 3 4 lj/cut 0.0007000000 3.5500000000
special_bonds lj 0.0 0.0 0.0 coul 0.0 0.0 0.0

#pair_style tersoff
#pair_coeff * * C.4.tersoff 1 2 3 4

#pair_style lj/cut 12.0
#pair_coeff 1 1 0.0700000000 3.5500000000
#special_bonds lj 0.0 0.0 0.0 coul 0.0 0.0 0.0
###########################################################################

#--------------------------------------------------------------------------
#variables
#--------------------------------------------------------------------------
variable   	dt 		equal 0.001
#--------------------------------------------------------------------------
#kappa parameters
#--------------------------------------------------------------------------
variable    	p 		equal 100000 	# correlation length
variable    	s 		equal 10  	# sample interval
variable    	d 		equal $p*$s 	# dump interval
variable    	d 		equal 100000*$s
variable    	d 		equal 100000*10

#--------------------------------------------------------------------------
variable 	T_run 		equal 300
#--------------------------------------------------------------------------

log 	log_heat_3.lammps
