LAMMPS (19 Feb 2013)
###########################################################################
#x0
###########################################################################
units 			metal
atom_style		full
read_data		fort.26.nonbonded
  triclinic box = (0 0 0) to (14 14 14) with tilt (0 0 0)
  120 atoms
  0 bonds
  0 angles
  0 dihedrals
group         		C type = 1
60 atoms in group C
###########################################################################
#OLPS
###########################################################################

################################################################################
#### Pair potentials
################################################################################
#pair_style hybrid/overlay tersoff lj/cut 12.0
#pair_coeff * * tersoff C.tersoff 1 2
#pair_coeff 1 2 lj/cut 0.0700000000 3.5500000000
#special_bonds lj 0.0 0.0 0.0 coul 0.0 0.0 0.0

pair_style tersoff
pair_coeff * * C.tersoff 1 2

#pair_style lj/cut 12.0
#pair_coeff 1 1 0.0700000000 3.5500000000
#special_bonds lj 0.0 0.0 0.0 coul 0.0 0.0 0.0
###########################################################################

###########################################################################
#run parameters
###########################################################################
variable   	dt 		equal 0.001
variable 	T_run 		equal 300
variable 	seed 		equal 11111

velocity 		all create 300 11111 rot yes dist gaussian

#--------------------------------------------------------------------------
#nvtanneal
#--------------------------------------------------------------------------
fix 		1 all nvt temp 400 400 1.0
dump		1 all xyz 10 dump.xyz
dump_modify 	1 sort id
compute 	myDis all msd
thermo_style  	custom step temp press etotal pe ke vol c_myDis[4]
thermo			10
timestep		0.0010000000000000000208
#run			500000
run			10000
Step Temp Press TotEng PotEng KinEng Volume myDis[4]
0          300    95440.884   -786.35422    -790.9688    4.6145872         2744 1.2476238e-30
Averages over the last 501 of 1001 rows, steps 5000 to 10000:
Temp Press TotEng PotEng KinEng Volume myDis[4]
403.902 212.264 -794.843 -801.056 6.21281 2744 10.7518
Loop time of 11.7115 on 1 procs for 10000 steps with 120 atoms

Pair  time (%) = 10.8686 (92.8031)
Bond  time (%) = 0.00281549 (0.0240404)
Neigh time (%) = 0.00402546 (0.0343719)
Comm  time (%) = 0.108621 (0.927476)
Outpt time (%) = 0.582678 (4.97527)
Other time (%) = 0.144721 (1.23572)

unfix 			1
uncompute 		myDis
